Circuit: * C:\Users\polasekp\Documents\SH_private\LowCapacitanceProbe\Simulation\probe.asc

WARNING: Less than two connections to node N009.  This node is used by V3.
Direct Newton iteration for .op point succeeded.

Date: Tue Feb 25 11:39:03 2025
Total elapsed time: 0.060 seconds.

tnom = 27
temp = 27
method = trap
totiter = 29
traniter = 0
tranpoints = 0
accept = 0
rejected = 0
matrix size = 34
fillins = 44
solver = Normal
Matrix Compiler1:     293 opcodes
Matrix Compiler2: 3.56 KB object code size
