Circuit: * Z:\home\msboss\Documents\LowCapacitanceProbe\Simulation\probe.asc

WARNING: Less than two connections to node NC_01.  This node is used by R5.
Direct Newton iteration for .op point succeeded.

Date: Mon Feb 24 22:22:49 2025
Total elapsed time: 0.138 seconds.

tnom = 27
temp = 27
method = trap
totiter = 29
traniter = 0
tranpoints = 0
accept = 0
rejected = 0
matrix size = 34
fillins = 45
solver = Normal
Matrix Compiler1:     295 opcodes
Matrix Compiler2: 3.59 KB object code size
