Circuit: * C:\Users\polasekp\Documents\SH_private\LowCapacitanceProbe\Simulation\probe.asc

WARNING: Node N004 is floating.

WARNING: Less than two connections to node N011.  This node is used by V3.
WARNING: Less than two connections to node N017.  This node is used by V6.
Direct Newton iteration for .op point succeeded.
.step cin=1.5e-012
.step cin=1.7e-012
.step cin=1.9e-012
.step cin=2.1e-012
.step cin=2.3e-012
.step cin=2.5e-012
.step cin=2.7e-012
.step cin=2.9e-012
.step cin=3e-012

Date: Tue Feb 25 12:53:07 2025
Total elapsed time: 1.283 seconds.

tnom = 27
temp = 27
method = trap
totiter = 30
traniter = 0
tranpoints = 0
accept = 0
rejected = 0
matrix size = 67
fillins = 91
Matrix Compiler1:     598 opcodes
Matrix Compiler2: 8.15 KB object code size
